2024_89_CemigReconfigurationCases/1_SEsCemig/NLAU06/NLAU06SegmentosMT.dss
new line.TR1000007 bus1=BMT672498B.1.2.3,bus2=BMT672505B.1.2.3,Phases=3,Linecode=CAB103_3_3,Length=0.030819000,Units=km
new line.TR1000021 bus1=BMT672512B.1.2.3,bus2=BMT167170384.1.2.3,Phases=3,Linecode=CABA06_3_3,Length=0.030666000,Units=km
new line.TR1000077 bus1=BMT176519315.1.2.3,bus2=BMT176519316.1.2.3,Phases=3,Linecode=CAB108_3_3,Length=0.027923000,Units=km
new line.TR1000105 bus1=BMT672603B.1.2.3,bus2=BMT176519315.1.2.3,Phases=3,Linecode=CAB108_3_3,Length=0.022512000,Units=km
new line.TR1000133 bus1=BMT672617B.1.2.3,bus2=BMT672603B.1.2.3,Phases=3,Linecode=CAB108_3_3,Length=0.029014000,Units=km
new line.TR1000168 bus1=BMT672638B.1.2.3,bus2=BMT672694B.1.2.3,Phases=3,Linecode=CAB108_3_3,Length=0.022634000,Units=km
new line.TR1000182 bus1=BMT672645B.1.2.3,bus2=BMT672617B.1.2.3,Phases=3,Linecode=CAB108_3_3,Length=0.032833000,Units=km
new line.TR1000203 bus1=BMT672666B.1.2.3,bus2=BMT672645B.1.2.3,Phases=3,Linecode=CAB108_3_3,Length=0.024381000,Units=km
new line.TR1000210 bus1=BMT672680B.1.2.3,bus2=BMT176519314.1.2.3,Phases=3,Linecode=CAB108_3_3,Length=0.031335000,Units=km
new line.TR1000217 bus1=BMT101928626.1.2.3,bus2=BMT672680B.1.2.3,Phases=3,Linecode=CAB108_3_3,Length=0.006009000,Units=km
new line.TR1000224 bus1=BMT101931041.1.2.3,bus2=BMT672729B.1.2.3,Phases=3,Linecode=CAB103_3_3,Length=0.036692000,Units=km
new line.TR1000231 bus1=BMT672694B.1.2.3,bus2=BMT101928626.1.2.3,Phases=3,Linecode=CAB108_3_3,Length=0.028121000,Units=km
new line.TR1000252 bus1=BMT672708B.1.2.3,bus2=BMT672666B.1.2.3,Phases=3,Linecode=CAB108_3_3,Length=0.033655000,Units=km
new line.TR1000266 bus1=BMT176519314.1.2.3,bus2=BMT672708B.1.2.3,Phases=3,Linecode=CAB108_3_3,Length=0.028030000,Units=km
new line.TR1000294 bus1=BMT672729B.1.2.3,bus2=BMT674248B.1.2.3,Phases=3,Linecode=CAB103_3_3,Length=0.038155000,Units=km
new line.TR1000336 bus1=BMT672757B.1.2.3,bus2=BMT672764B.1.2.3,Phases=3,Linecode=CABA06_3_3,Length=0.022567000,Units=km
new line.TR1000350 bus1=BMT672764B.1.2.3,bus2=BMT170218280.1.2.3,Phases=3,Linecode=CABA06_3_3,Length=0.028301000,Units=km
new line.TR1000378 bus1=BMT672792B.1.2.3,bus2=BMT170218301.1.2.3,Phases=3,Linecode=CABA06_3_3,Length=0.037829000,Units=km
new line.TR1000399 bus1=BMT672799B.1.2.3,bus2=BMT170218302.1.2.3,Phases=3,Linecode=CABA06_3_3,Length=0.027472000,Units=km
new line.TR1000413 bus1=BMT170218301.1.2.3,bus2=BMT672813B.1.2.3,Phases=3,Linecode=CABA06_3_3,Length=0.036997000,Units=km
new line.TR1000427 bus1=BMT672813B.1.2.3,bus2=BMT672820B.1.2.3,Phases=3,Linecode=CABA06_3_3,Length=0.027893000,Units=km
new line.TR1000441 bus1=BMT672820B.1.2.3,bus2=BMT672799B.1.2.3,Phases=3,Linecode=CABA06_3_3,Length=0.029875000,Units=km
new line.TR1000518 bus1=BMT672869B.1.2.3,bus2=BMT161881500.1.2.3,Phases=3,Linecode=CAB103_3_3,Length=0.025952000,Units=km
new line.TR1000525 bus1=BMT672883B.1.2.3,bus2=BMT672911B.1.2.3,Phases=3,Linecode=CABA08_3_3,Length=0.037304000,Units=km
new line.TR1000560 bus1=BMT672995B.1.2.3,bus2=BMT672988B.1.2.3,Phases=3,Linecode=CABA08_3_3,Length=0.021546000,Units=km
new line.TR1000567 bus1=BMT673002B.1.2.3,bus2=BMT672995B.1.2.3,Phases=3,Linecode=CABA08_3_3,Length=0.028660000,Units=km
new line.TR1000581 bus1=BMT174714917.1.2.3,bus2=BMT673002B.1.2.3,Phases=3,Linecode=CABA08_3_3,Length=0.029689000,Units=km
new line.TR1000588 bus1=BMT174714920.2,bus2=BMT174714893.2,Phases=1,Linecode=CABA06_3_1,Length=0.028326000,Units=km
new line.TR1000658 bus1=BMT673058B.1.2.3,bus2=BMT653024B.1.2.3,Phases=3,Linecode=CAB004_3_3,Length=0.010903000,Units=km
new line.TR1000665 bus1=BMT673065B.1.2.3,bus2=BMT171729988.1.2.3,Phases=3,Linecode=CABA08_3_3,Length=0.028550000,Units=km
new line.TR1000686 bus1=BMT171729990.1.2.3,bus2=BMT673058B.1.2.3,Phases=3,Linecode=CAB004_3_3,Length=0.023345000,Units=km
new line.TR1000728 bus1=BMT170218404.3,bus2=BMT170218406.3,Phases=1,Linecode=CABA06_3_1,Length=0.037787000,Units=km
new line.TR1000735 bus1=BMT170218404.3,bus2=BMT3404395B.3,Phases=1,Linecode=CAB103_3_1,Length=0.069392000,Units=km
new line.TR1000749 bus1=BMT673107B.1.2.3,bus2=BMT170218404.1.2.3,Phases=3,Linecode=CABA06_3_3,Length=0.027481000,Units=km
new line.TR1000770 bus1=BMT673114B.1.2.3,bus2=BMT673107B.1.2.3,Phases=3,Linecode=CABA06_3_3,Length=0.041645000,Units=km
new line.TR1000826 bus1=BMT170218403.1.2.3,bus2=BMT673114B.1.2.3,Phases=3,Linecode=CABA06_3_3,Length=0.042046000,Units=km
new line.TR1000833 bus1=BMT170218403.1.2.3,bus2=BMT673156B.1.2.3,Phases=3,Linecode=CABA06_3_3,Length=0.040978000,Units=km
new line.TR1000847 bus1=BMT170218402.1.2.3,bus2=BMT170218403.1.2.3,Phases=3,Linecode=CABA06_3_3,Length=0.033087000,Units=km
new line.TR1000882 bus1=BMT673191B.1.2.3,bus2=BMT170218402.1.2.3,Phases=3,Linecode=CABA06_3_3,Length=0.032009000,Units=km
new line.TR1000931 bus1=BMT673219B.1.2.3,bus2=BMT673191B.1.2.3,Phases=3,Linecode=CABA06_3_3,Length=0.027314000,Units=km
new line.TR1000959 bus1=BMT673233B.1.2.3,bus2=BMT673219B.1.2.3,Phases=3,Linecode=CABA06_3_3,Length=0.029078000,Units=km
new line.TR1000973 bus1=BMT673240B.1.2.3,bus2=BMT170218281.1.2.3,Phases=3,Linecode=CABA06_3_3,Length=0.020923000,Units=km
new line.TR1000994 bus1=BMT673247B.1.2.3,bus2=BMT673240B.1.2.3,Phases=3,Linecode=CABA06_3_3,Length=0.018362000,Units=km
new line.TR1001015 bus1=BMT170218280.1.2.3,bus2=BMT673247B.1.2.3,Phases=3,Linecode=CABA06_3_3,Length=0.015123000,Units=km
new line.TR1001022 bus1=BMT170218280.2,bus2=BMT673261B.2,Phases=1,Linecode=CAB002_3_1,Length=0.029481000,Units=km
new line.TR1001043 bus1=BMT673261B.2,bus2=BMT170218282.2,Phases=1,Linecode=CAB002_3_1,Length=0.037026000,Units=km
new line.TR1001057 bus1=BMT170218282.2,bus2=BMT673275B.2,Phases=1,Linecode=CAB002_3_1,Length=0.040321000,Units=km
new line.TR1001071 bus1=BMT673275B.2,bus2=BMT669369B.2,Phases=1,Linecode=CAB002_3_1,Length=0.034937000,Units=km
new line.TR1001120 bus1=BMT673303B.1.2.3,bus2=BMT163360018.1.2.3,Phases=3,Linecode=CABA06_3_3,Length=0.038502000,Units=km
new line.TR1001134 bus1=BMT163360017.1.2.3,bus2=BMT673303B.1.2.3,Phases=3,Linecode=CABA06_3_3,Length=0.032162000,Units=km
new line.TR1001141 bus1=BMT673331B.1.2.3,bus2=BMT652576B.1.2.3,Phases=3,Linecode=CABA08_3_3,Length=0.029478000,Units=km
new line.TR1001148 bus1=BMT174202969.1.2.3,bus2=BMT673345B.1.2.3,Phases=3,Linecode=CABA08_3_3,Length=0.035152000,Units=km
new line.TR1001155 bus1=BMT673345B.1.2.3,bus2=BMT673352B.1.2.3,Phases=3,Linecode=CABA08_3_3,Length=0.031049000,Units=km
new line.TR1001162 bus1=BMT673352B.1.2.3,bus2=BMT673359B.1.2.3,Phases=3,Linecode=CABA08_3_3,Length=0.031741000,Units=km
new line.TR1001169 bus1=BMT673359B.1.2.3,bus2=BMT673366B.1.2.3,Phases=3,Linecode=CABA08_3_3,Length=0.034578000,Units=km
new line.TR1001183 bus1=BMT673366B.1.2.3,bus2=BMT174202970.1.2.3,Phases=3,Linecode=CABA08_3_3,Length=0.029577000,Units=km
new line.TR1001204 bus1=BMT151766482.1.2.3,bus2=BMT673373B.1.2.3,Phases=3,Linecode=CAB103_3_3,Length=0.005833000,Units=km
new line.TR1001211 bus1=BMT151766482.1.2.3,bus2=BMT673387B.1.2.3,Phases=3,Linecode=CAB103_3_3,Length=0.007812000,Units=km
new line.TR1001218 bus1=BMT151766482.1.2.3,bus2=BMT101925378.1.2.3,Phases=3,Linecode=CAB103_3_3,Length=0.005833000,Units=km
new line.TR1001232 bus1=BMT673387B.1.2.3,bus2=BMT101925371.1.2.3,Phases=3,Linecode=CAB103_3_3,Length=0.031530000,Units=km
new line.TR1001253 bus1=BMT152999033.1.2.3,bus2=BMT673401B.1.2.3,Phases=3,Linecode=CAB103_3_3,Length=0.034754000,Units=km
new line.TR1001260 bus1=BMT673401B.1.2.3,bus2=BMT152999034.1.2.3,Phases=3,Linecode=CAB103_3_3,Length=0.034039000,Units=km
new line.TR1001281 bus1=BMT152999034.1.2.3,bus2=BMT673415B.1.2.3,Phases=3,Linecode=CAB103_3_3,Length=0.033386000,Units=km
new line.TR1001288 bus1=BMT673415B.1.2.3,bus2=BMT673422B.1.2.3,Phases=3,Linecode=CAB103_3_3,Length=0.034711000,Units=km
new line.TR1001295 bus1=BMT673422B.1.2.3,bus2=BMT673429B.1.2.3,Phases=3,Linecode=CAB103_3_3,Length=0.032576000,Units=km
new line.TR1001302 bus1=BMT673429B.1.2.3,bus2=BMT677146B.1.2.3,Phases=3,Linecode=CAB103_3_3,Length=0.029587000,Units=km
new line.TR1001337 bus1=BMT673450B.1.2.3,bus2=BMT648397B.1.2.3,Phases=3,Linecode=CAB103_3_3,Length=0.032164000,Units=km
new line.TR1001344 bus1=BMT174984132.1.2.3,bus2=BMT673450B.1.2.3,Phases=3,Linecode=CAB103_3_3,Length=0.039821000,Units=km
new line.TR1001351 bus1=BMT101925357.1.2.3,bus2=BMT151766482.1.2.3,Phases=3,Linecode=CAB103_3_3,Length=0.031788000,Units=km
new line.TR1001358 bus1=BMT163524021.1.2.3,bus2=BMT163524022.1.2.3,Phases=3,Linecode=CAB103_3_3,Length=0.025361000,Units=km
new line.TR1001365 bus1=BMT673471B.1.2.3,bus2=BMT101925357.1.2.3,Phases=3,Linecode=CAB103_3_3,Length=0.031024000,Units=km
new line.TR1001372 bus1=BMT673478B.1.2.3,bus2=BMT673471B.1.2.3,Phases=3,Linecode=CAB103_3_3,Length=0.032781000,Units=km
new line.TR1001386 bus1=BMT673485B.1.2.3,bus2=BMT673478B.1.2.3,Phases=3,Linecode=CAB103_3_3,Length=0.032636000,Units=km
new line.TR1001393 bus1=BMT151766481.1.2.3,bus2=BMT673485B.1.2.3,Phases=3,Linecode=CAB103_3_3,Length=0.034252000,Units=km
new line.TR1001400 bus1=BMT673499B.1.2.3,bus2=BMT151766481.1.2.3,Phases=3,Linecode=CAB103_3_3,Length=0.033185000,Units=km
new line.TR1001414 bus1=BMT673506B.1.2.3,bus2=BMT673499B.1.2.3,Phases=3,Linecode=CAB103_3_3,Length=0.038081000,Units=km
new line.TR1001421 bus1=BMT101925343.1.2.3,bus2=BMT673506B.1.2.3,Phases=3,Linecode=CAB103_3_3,Length=0.020675000,Units=km
new line.TR1001428 bus1=BMT157424942.1.2.3,bus2=BMT673541B.1.2.3,Phases=3,Linecode=CAB103_3_3,Length=0.029314000,Units=km
new line.TR1001442 bus1=BMT151766480.1.2.3,bus2=BMT101925343.1.2.3,Phases=3,Linecode=CAB103_3_3,Length=0.014039000,Units=km
new line.TR1001456 bus1=BMT673527B.1.2.3,bus2=BMT151766480.1.2.3,Phases=3,Linecode=CAB103_3_3,Length=0.035519000,Units=km
new line.TR1001463 bus1=BMT673534B.1.2.3,bus2=BMT673527B.1.2.3,Phases=3,Linecode=CAB103_3_3,Length=0.034937000,Units=km
new line.TR1001470 bus1=BMT673541B.1.2.3,bus2=BMT157424943.1.2.3,Phases=3,Linecode=CAB103_3_3,Length=0.031397000,Units=km
new line.TR1001477 bus1=BMT673548B.1.2.3,bus2=BMT673534B.1.2.3,Phases=3,Linecode=CAB103_3_3,Length=0.036368000,Units=km
new line.TR1001484 bus1=BMT673555B.1.2.3,bus2=BMT673548B.1.2.3,Phases=3,Linecode=CAB103_3_3,Length=0.035519000,Units=km
new line.TR1001498 bus1=BMT157424943.1.2.3,bus2=BMT157424944.1.2.3,Phases=3,Linecode=CAB103_3_3,Length=0.032164000,Units=km
new line.TR1001505 bus1=BMT151766479.1.2.3,bus2=BMT673555B.1.2.3,Phases=3,Linecode=CAB103_3_3,Length=0.036368000,Units=km
new line.TR1001512 bus1=BMT157424944.1.2.3,bus2=BMT675627B.1.2.3,Phases=3,Linecode=CAB103_3_3,Length=0.032531000,Units=km
new line.TR1001519 bus1=BMT157424944.1.2.3,bus2=BMT675641B.1.2.3,Phases=3,Linecode=CAB103_3_3,Length=0.028128000,Units=km
new line.TR1001533 bus1=BMT151766478.1.2.3,bus2=BMT151766479.1.2.3,Phases=3,Linecode=CABA08_3_3,Length=0.035855000,Units=km
new line.TR1001540 bus1=BMT673590B.1.2.3,bus2=BMT652562B.1.2.3,Phases=3,Linecode=CABA08_3_3,Length=0.026994000,Units=km
new line.TR1001547 bus1=BMT673590B.1.2.3,bus2=BMT673331B.1.2.3,Phases=3,Linecode=CABA08_3_3,Length=0.034415000,Units=km
new line.TR1001554 bus1=BMT673604B.3,bus2=BMT158573072.3,Phases=1,Linecode=CAB103_3_1,Length=0.030338000,Units=km
new line.TR1001561 bus1=BMT158573070.3,bus2=BMT158573071.3,Phases=1,Linecode=CAB102_3_1,Length=0.028090000,Units=km
new line.TR1001568 bus1=BMT158573070.3,bus2=BMT673604B.3,Phases=1,Linecode=CAB103_3_1,Length=0.022011000,Units=km
new line.TR1001603 bus1=BMT673632B.3,bus2=BMT673646B.3,Phases=1,Linecode=CAB102_3_1,Length=0.028085000,Units=km
new line.TR1001617 bus1=BMT158573069.3,bus2=BMT652422B.3,Phases=1,Linecode=CAB102_3_1,Length=0.028783000,Units=km
new line.TR1001638 bus1=BMT673646B.3,bus2=BMT158573070.3,Phases=1,Linecode=CAB102_3_1,Length=0.040930000,Units=km
new line.TR1001694 bus1=BMT673758B.1.2.3,bus2=BMT161881494.1.2.3,Phases=3,Linecode=CAB103_3_3,Length=0.031463000,Units=km
new line.TR1001722 bus1=BMT673793B.1.2.3,bus2=BMT673800B.1.2.3,Phases=3,Linecode=CAB108_3_3,Length=0.025507000,Units=km
new line.TR1001736 bus1=BMT673800B.1.2.3,bus2=BMT101928745.1.2.3,Phases=3,Linecode=CAB108_3_3,Length=0.026488000,Units=km
new line.TR1001750 bus1=BMT171729985.1.2.3,bus2=BMT673793B.1.2.3,Phases=3,Linecode=CAB108_3_3,Length=0.022809000,Units=km
new line.TR1001757 bus1=BMT171729985.1.2.3,bus2=BMT171729984.1.2.3,Phases=3,Linecode=CAB108_3_3,Length=0.039249000,Units=km
new line.TR1001771 bus1=BMT171729984.1.2.3,bus2=BMT171729986.1.2.3,Phases=3,Linecode=CABA06_3_3,Length=0.041930000,Units=km
new line.TR1001778 bus1=BMT171729984.1.2.3,bus2=BMT673828B.1.2.3,Phases=3,Linecode=CAB108_3_3,Length=0.015109000,Units=km
new line.TR1001806 bus1=BMT673828B.1.2.3,bus2=BMT676306B.1.2.3,Phases=3,Linecode=CAB108_3_3,Length=0.025265000,Units=km
new line.TR1001820 bus1=BMT175517664.1.2.3,bus2=BMT151674026.1.2.3,Phases=3,Linecode=CABA08_3_3,Length=0.011735000,Units=km
new line.TR1001834 bus1=BMT175517663.1.2.3,bus2=BMT151674026.1.2.3,Phases=3,Linecode=CABA08_3_3,Length=0.034108000,Units=km
new line.TR1001862 bus1=BMT673863B.1.2.3,bus2=BMT175517663.1.2.3,Phases=3,Linecode=CABA08_3_3,Length=0.037168000,Units=km
new line.TR1001876 bus1=BMT673870B.1.2.3,bus2=BMT673863B.1.2.3,Phases=3,Linecode=CABA08_3_3,Length=0.038073000,Units=km
new line.TR1001911 bus1=BMT170218418.3,bus2=BMT2589448B.3,Phases=1,Linecode=CAB102_3_1,Length=0.032186000,Units=km
new line.TR1007763 bus1=BMT677594B.1.2.3,bus2=BMT677601B.1.2.3,Phases=3,Linecode=CABA06_3_3,Length=0.035911000,Units=km
new line.TR1007777 bus1=BMT677601B.1.2.3,bus2=BMT170218559.1.2.3,Phases=3,Linecode=CABA06_3_3,Length=0.036886000,Units=km
new line.TR1005831 bus1=BMT676495B.3,bus2=BMT158573069.3,Phases=1,Linecode=CAB103_3_1,Length=0.046920000,Units=km
new line.TR1005845 bus1=BMT158573067.3,bus2=BMT676523B.3,Phases=1,Linecode=CAB103_3_1,Length=0.018513000,Units=km
new line.TR1005866 bus1=BMT676509B.3,bus2=BMT676495B.3,Phases=1,Linecode=CAB103_3_1,Length=0.029325000,Units=km
new line.TR1005880 bus1=BMT158573068.3,bus2=BMT676509B.3,Phases=1,Linecode=CAB103_3_1,Length=0.030390000,Units=km
new line.TR1005887 bus1=BMT676523B.3,bus2=BMT676544B.3,Phases=1,Linecode=CAB103_3_1,Length=0.032264000,Units=km
new line.TR1005915 bus1=BMT676537B.3,bus2=BMT158573068.3,Phases=1,Linecode=CAB103_3_1,Length=0.031795000,Units=km
new line.TR1005936 bus1=BMT676544B.3,bus2=BMT676537B.3,Phases=1,Linecode=CAB103_3_1,Length=0.030814000,Units=km
new line.TR1005971 bus1=BMT676565B.2,bus2=BMT136880627.2,Phases=1,Linecode=CAB103_3_1,Length=0.030609000,Units=km
new line.TR1005999 bus1=BMT676572B.2,bus2=BMT676565B.2,Phases=1,Linecode=CAB103_3_1,Length=0.033549000,Units=km
new line.TR1006006 bus1=BMT676586B.1.2.3,bus2=BMT101928682.1.2.3,Phases=3,Linecode=CAB103_3_3,Length=0.022005000,Units=km
new line.TR1006020 bus1=BMT676607B.1.2.3,bus2=BMT676586B.1.2.3,Phases=3,Linecode=CAB103_3_3,Length=0.020401000,Units=km
new line.TR1006034 bus1=BMT101928675.1.2.3,bus2=BMT676607B.1.2.3,Phases=3,Linecode=CAB103_3_3,Length=0.035065000,Units=km
new line.TR1006041 bus1=BMT101928675.1.2.3,bus2=BMT676635B.1.2.3,Phases=3,Linecode=CAB103_3_3,Length=0.026839000,Units=km
new line.TR1006069 bus1=BMT676635B.1.2.3,bus2=BMT676845B.1.2.3,Phases=3,Linecode=CAB103_3_3,Length=0.038022000,Units=km
new line.TR10060842 bus1=BMT6094825B.1.2.3,bus2=BMT150100013.1.2.3,Phases=3,Linecode=CABA06_3_3,Length=0.021265000,Units=km
new line.TR1006097 bus1=BMT676649B.1.2.3,bus2=BMT176519319.1.2.3,Phases=3,Linecode=CAB108_3_3,Length=0.016497000,Units=km
new line.TR1006111 bus1=BMT101928668.1.2.3,bus2=BMT101928675.1.2.3,Phases=3,Linecode=CAB103_3_3,Length=0.053725000,Units=km
new line.TR1006153 bus1=BMT176519316.1.2.3,bus2=BMT101928647.1.2.3,Phases=3,Linecode=CAB103_3_3,Length=0.028113000,Units=km
new line.TR1006160 bus1=BMT176519316.1.2.3,bus2=BMT3279928B.1.2.3,Phases=3,Linecode=CAB108_3_3,Length=0.020740000,Units=km
new line.TR1006188 bus1=BMT104921812.1.2.3,bus2=BMT676733B.1.2.3,Phases=3,Linecode=CABA08_3_3,Length=0.037171000,Units=km
new line.TR1006279 bus1=BMT676733B.1.2.3,bus2=BMT673926B.1.2.3,Phases=3,Linecode=CABA08_3_3,Length=0.035959000,Units=km
new line.TR1006356 bus1=BMT676761B.1.2.3,bus2=BMT676768B.1.2.3,Phases=3,Linecode=CABA08_3_3,Length=0.024096000,Units=km
new line.TR1006384 bus1=BMT676768B.1.2.3,bus2=BMT676775B.1.2.3,Phases=3,Linecode=CABA08_3_3,Length=0.021938000,Units=km
new line.TR1006405 bus1=BMT676775B.1.2.3,bus2=BMT686967B.1.2.3,Phases=3,Linecode=CABA08_3_3,Length=0.036278000,Units=km
new line.TR1006419 bus1=BMT163524023.1.2.3,bus2=BMT675417B.1.2.3,Phases=3,Linecode=CAB103_3_3,Length=0.026588000,Units=km
new line.TR1006426 bus1=BMT163524023.1.2.3,bus2=BMT676789B.1.2.3,Phases=3,Linecode=CAB103_3_3,Length=0.036799000,Units=km
new line.TR1006440 bus1=BMT676789B.1.2.3,bus2=BMT676796B.1.2.3,Phases=3,Linecode=CAB103_3_3,Length=0.036831000,Units=km
new line.TR1006454 bus1=BMT676796B.1.2.3,bus2=BMT163524026.1.2.3,Phases=3,Linecode=CAB103_3_3,Length=0.036037000,Units=km
new line.TR1006468 bus1=BMT676845B.1.2.3,bus2=BMT676866B.1.2.3,Phases=3,Linecode=CAB103_3_3,Length=0.030601000,Units=km
new line.TR1006496 bus1=BMT676866B.1.2.3,bus2=BMT101928689.1.2.3,Phases=3,Linecode=CAB103_3_3,Length=0.034069000,Units=km
new line.TR1006545 bus1=BMT174373228.1.2.3,bus2=BMT170218962.1.2.3,Phases=3,Linecode=CAB103_3_3,Length=0.013836000,Units=km
new line.TR1006552 bus1=BMT174373228.1.2.3,bus2=BMT676957B.1.2.3,Phases=3,Linecode=CAB108_3_3,Length=0.027314000,Units=km
new line.TR1006566 bus1=BMT170218967.1.2.3,bus2=BMT676929B.1.2.3,Phases=3,Linecode=CAB103_3_3,Length=0.022714000,Units=km
new line.TR1006580 bus1=BMT676929B.1.2.3,bus2=BMT170218968.1.2.3,Phases=3,Linecode=CAB103_3_3,Length=0.033742000,Units=km
new line.TR1006594 bus1=BMT170218968.1.2.3,bus2=BMT676943B.1.2.3,Phases=3,Linecode=CAB103_3_3,Length=0.028483000,Units=km
new line.TR1006608 bus1=BMT676943B.1.2.3,bus2=BMT170218969.1.2.3,Phases=3,Linecode=CAB103_3_3,Length=0.032645000,Units=km
new line.TR1006629 bus1=BMT676957B.1.2.3,bus2=BMT670426B.1.2.3,Phases=3,Linecode=CAB108_3_3,Length=0.031239000,Units=km
new line.TR1006713 bus1=BMT677027B.3,bus2=BMT170218413.3,Phases=1,Linecode=CAB102_3_1,Length=0.034707000,Units=km
new line.TR1006720 bus1=BMT170218414.3,bus2=BMT671511B.3,Phases=1,Linecode=CAB103_3_1,Length=0.030396000,Units=km
new line.TR1006769 bus1=BMT677104B.1.2.3,bus2=BMT170886925.1.2.3,Phases=3,Linecode=CABA08_3_3,Length=0.028011000,Units=km
new line.TR1006783 bus1=BMT170886925.1.2.3,bus2=BMT677125B.1.2.3,Phases=3,Linecode=CABA08_3_3,Length=0.023845000,Units=km
new line.TR1006804 bus1=BMT677118B.1.2.3,bus2=BMT170886927.1.2.3,Phases=3,Linecode=CABA06_3_3,Length=0.035069000,Units=km
new line.TR1006811 bus1=BMT677125B.1.2.3,bus2=BMT170886926.1.2.3,Phases=3,Linecode=CABA08_3_3,Length=0.022393000,Units=km
new line.TR1006832 bus1=BMT170886926.1.2.3,bus2=BMT669733B.1.2.3,Phases=3,Linecode=CABA08_3_3,Length=0.017493000,Units=km
new line.TR1006839 bus1=BMT170886926.1.2.3,bus2=BMT677118B.1.2.3,Phases=3,Linecode=CABA06_3_3,Length=0.014046000,Units=km
new line.TR1006846 bus1=BMT677146B.1.2.3,bus2=BMT152999035.1.2.3,Phases=3,Linecode=CAB103_3_3,Length=0.029260000,Units=km
new line.TR1006853 bus1=BMT152999035.1.2.3,bus2=BMT676418B.1.2.3,Phases=3,Linecode=CAB103_3_3,Length=0.026329000,Units=km
new line.TR1006860 bus1=BMT152999035.1.2.3,bus2=BMT152999037.1.2.3,Phases=3,Linecode=CAB103_3_3,Length=0.035149000,Units=km
new line.TR1006909 bus1=BMT157424948.1.2.3,bus2=BMT672071B.1.2.3,Phases=3,Linecode=CAB103_3_3,Length=0.029959000,Units=km
new line.TR1006916 bus1=BMT157424948.1.2.3,bus2=BMT677202B.1.2.3,Phases=3,Linecode=CAB103_3_3,Length=0.038991000,Units=km
new line.TR1006923 bus1=BMT677202B.1.2.3,bus2=BMT677209B.1.2.3,Phases=3,Linecode=CAB103_3_3,Length=0.033522000,Units=km
new line.TR1006930 bus1=BMT677209B.1.2.3,bus2=BMT677216B.1.2.3,Phases=3,Linecode=CAB103_3_3,Length=0.034930000,Units=km
new line.TR1006944 bus1=BMT677216B.1.2.3,bus2=BMT157424950.1.2.3,Phases=3,Linecode=CAB103_3_3,Length=0.033777000,Units=km
new line.TR10069494 bus1=BMT170886896.1.2.3,bus2=BMT630960B.1.2.3,Phases=3,Linecode=CAB103_3_3,Length=0.017809000,Units=km
new line.TR10069501 bus1=BMT170886896.1.2.3,bus2=BMT630981B.1.2.3,Phases=3,Linecode=CABA06_3_3,Length=0.011405000,Units=km
new line.TR10069508 bus1=BMT170886896.1.2.3,bus2=BMT630988B.1.2.3,Phases=3,Linecode=CAB103_3_3,Length=0.012086000,Units=km
new line.TR1001939 bus1=BMT673926B.1.2.3,bus2=BMT676761B.1.2.3,Phases=3,Linecode=CABA08_3_3,Length=0.035362000,Units=km
new line.TR1001967 bus1=BMT673975B.1.2.3,bus2=BMT673989B.1.2.3,Phases=3,Linecode=CAB103_3_3,Length=0.016916000,Units=km
new line.TR1001981 bus1=BMT673982B.1.2.3,bus2=BMT101931055.1.2.3,Phases=3,Linecode=CAB103_3_3,Length=0.036452000,Units=km
new line.TR1001988 bus1=BMT673989B.1.2.3,bus2=BMT674003B.1.2.3,Phases=3,Linecode=CAB103_3_3,Length=0.037494000,Units=km
new line.TR1002002 bus1=BMT673996B.1.2.3,bus2=BMT673982B.1.2.3,Phases=3,Linecode=CAB103_3_3,Length=0.032458000,Units=km
new line.TR1002009 bus1=BMT674003B.1.2.3,bus2=BMT674017B.1.2.3,Phases=3,Linecode=CAB103_3_3,Length=0.041179000,Units=km
new line.TR1002016 bus1=BMT674010B.1.2.3,bus2=BMT673996B.1.2.3,Phases=3,Linecode=CAB103_3_3,Length=0.032952000,Units=km
new line.TR1002023 bus1=BMT674017B.1.2.3,bus2=BMT674010B.1.2.3,Phases=3,Linecode=CAB103_3_3,Length=0.035860000,Units=km
new line.TR1002030 bus1=BMT674059B.1.2.3,bus2=BMT674066B.1.2.3,Phases=3,Linecode=CABA08_3_3,Length=0.034295000,Units=km
new line.TR1002037 bus1=BMT674066B.1.2.3,bus2=BMT674073B.1.2.3,Phases=3,Linecode=CABA08_3_3,Length=0.037401000,Units=km
new line.TR1002044 bus1=BMT674073B.1.2.3,bus2=BMT674101B.1.2.3,Phases=3,Linecode=CABA08_3_3,Length=0.036902000,Units=km
new line.TR1002093 bus1=BMT674101B.1.2.3,bus2=BMT674122B.1.2.3,Phases=3,Linecode=CABA08_3_3,Length=0.035851000,Units=km
new line.TR1002107 bus1=BMT674122B.1.2.3,bus2=BMT166836040.1.2.3,Phases=3,Linecode=CABA08_3_3,Length=0.034496000,Units=km
new line.TR1002121 bus1=BMT166836040.1.2.3,bus2=BMT674150B.1.2.3,Phases=3,Linecode=CABA08_3_3,Length=0.035469000,Units=km
new line.TR1002128 bus1=BMT674143B.1.2.3,bus2=BMT674157B.1.2.3,Phases=3,Linecode=CAB907_4_3,Length=0.035482000,Units=km
new line.TR1002135 bus1=BMT674150B.1.2.3,bus2=BMT674164B.1.2.3,Phases=3,Linecode=CABA08_3_3,Length=0.032786000,Units=km
new line.TR1002156 bus1=BMT674157B.1.2.3,bus2=BMT674171B.1.2.3,Phases=3,Linecode=CAB907_4_3,Length=0.031550000,Units=km
new line.TR1002177 bus1=BMT674164B.1.2.3,bus2=BMT674178B.1.2.3,Phases=3,Linecode=CABA08_3_3,Length=0.037278000,Units=km
new line.TR1002198 bus1=BMT674171B.1.2.3,bus2=BMT674185B.1.2.3,Phases=3,Linecode=CAB907_4_3,Length=0.033653000,Units=km
new line.TR1002205 bus1=BMT674178B.1.2.3,bus2=BMT674192B.1.2.3,Phases=3,Linecode=CABA08_3_3,Length=0.033633000,Units=km
new line.TR1002212 bus1=BMT674185B.1.2.3,bus2=BMT170548973.1.2.3,Phases=3,Linecode=CAB907_4_3,Length=0.033149000,Units=km
new line.TR1002226 bus1=BMT674192B.1.2.3,bus2=BMT155760879.1.2.3,Phases=3,Linecode=CABA08_3_3,Length=0.037664000,Units=km
new line.TR1002233 bus1=BMT170548973.1.2.3,bus2=BMT170548972.1.2.3,Phases=3,Linecode=CABA08_3_3,Length=0.023543000,Units=km
new line.TR1002275 bus1=BMT170548970.1.2.3,bus2=BMT674227B.1.2.3,Phases=3,Linecode=CABA08_3_3,Length=0.025279000,Units=km
new line.TR1002282 bus1=BMT170548970.1.2.3,bus2=BMT101926946.1.2.3,Phases=3,Linecode=CABA08_3_3,Length=0.007472000,Units=km
new line.TR1002303 bus1=BMT674227B.1.2.3,bus2=BMT166837501.1.2.3,Phases=3,Linecode=CABA08_3_3,Length=0.060388000,Units=km
new line.TR1002359 bus1=BMT674248B.1.2.3,bus2=BMT101931048.1.2.3,Phases=3,Linecode=CAB103_3_3,Length=0.039484000,Units=km
new line.TR1002401 bus1=BMT101931048.1.2.3,bus2=BMT673975B.1.2.3,Phases=3,Linecode=CAB103_3_3,Length=0.029180000,Units=km
new line.TR1002408 bus1=BMT101931048.1.2.3,bus2=BMT101931062.1.2.3,Phases=3,Linecode=CAB103_3_3,Length=0.039915000,Units=km
new line.TR1002555 bus1=BMT674423B.1,bus2=BMT170886874.1,Phases=1,Linecode=CAB103_3_1,Length=0.031973000,Units=km
new line.TR1002562 bus1=BMT674458B.1.2.3,bus2=BMT101929431.1.2.3,Phases=3,Linecode=CAB102_3_3,Length=0.031615000,Units=km
new line.TR1002583 bus1=BMT674465B.1.2.3,bus2=BMT674458B.1.2.3,Phases=3,Linecode=CAB102_3_3,Length=0.026424000,Units=km
...
