2024_89_CemigReconfigurationCases/1_SEsCemig/NLAU06/NLAU06Transformadores.dss
new transformer.1279021 Phases=3,Windings=2,Buses=[BMT163628757.1.2.3 BBT73973426.1.2.3.0],Conns=[delta wye],kvs=[13.8 0.22],kvas=[45.000000000 45.000000000],Taps=[1,1.010000000],XHL=3.636000000,%loadloss=1.522000000,%noloadloss=0.377777778
new transformer.1308106 Phases=1,Windings=3,Buses=[BMT172701489.1 BBT86579733.1.0 BBT86579733.0.2],Conns=[wye wye wye],kvs=[7.967 0.12 0.12],kvas=[5.000000000 5.000000000 5.000000000],Taps=[1,1.000000000,1.000000000],XHL=1.628000000,XHT=1.628000000,XLT=1.085000000,%loadloss=1.900000000,%noloadloss=0.600000000
new transformer.1308176 Phases=1,Windings=3,Buses=[BMT104262496.1 BBT86664909.1.0 BBT86664909.0.2],Conns=[wye wye wye],kvs=[7.967 0.12 0.12],kvas=[5.000000000 5.000000000 5.000000000],Taps=[1,1.000000000,1.000000000],XHL=1.628000000,XHT=1.628000000,XLT=1.085000000,%loadloss=1.900000000,%noloadloss=0.600000000
new transformer.1308232 Phases=1,Windings=3,Buses=[BMT153258948.1 BBT86736519.1.0 BBT86736519.0.2],Conns=[wye wye wye],kvs=[7.967 0.12 0.12],kvas=[5.000000000 5.000000000 5.000000000],Taps=[1,1.000000000,1.000000000],XHL=1.628000000,XHT=1.628000000,XLT=1.085000000,%loadloss=1.900000000,%noloadloss=0.600000000
new transformer.1308330 Phases=1,Windings=3,Buses=[BMT101921164.2 BBT86844270.1.0 BBT86844270.0.2],Conns=[wye wye wye],kvs=[7.967 0.12 0.12],kvas=[15.000000000 15.000000000 15.000000000],Taps=[1,1.000000000,1.000000000],XHL=2.123000000,XHT=2.123000000,XLT=1.415000000,%loadloss=1.600000000,%noloadloss=0.400000000
new transformer.1319096 Phases=3,Windings=2,Buses=[BMT176707021.1.2.3 BBT92637925.1.2.3.0],Conns=[delta wye],kvs=[13.8 0.22],kvas=[75.000000000 75.000000000],Taps=[1,1.000000000],XHL=3.721000000,%loadloss=1.340000000,%noloadloss=0.340000000
new transformer.1319131 Phases=3,Windings=2,Buses=[BMT176707018.1.2.3 BBT92640074.1.2.3.0],Conns=[delta wye],kvs=[13.8 0.22],kvas=[150.000000000 150.000000000],Taps=[1,1.000000000],XHL=3.805000000,%loadloss=1.127000000,%noloadloss=0.280000000
new transformer.1321273 Phases=3,Windings=2,Buses=[BMT153464753.1.2.3 BBT94050301.1.2.3.0],Conns=[delta wye],kvs=[13.8 0.22],kvas=[75.000000000 75.000000000],Taps=[1,1.000000000],XHL=3.721000000,%loadloss=1.340000000,%noloadloss=0.340000000
new transformer.1333544 Phases=1,Windings=3,Buses=[BMT104265107.1 BBT104258632.1.0 BBT104258632.0.2],Conns=[wye wye wye],kvs=[7.967 0.12 0.12],kvas=[5.000000000 5.000000000 5.000000000],Taps=[1,1.000000000,1.000000000],XHL=1.628000000,XHT=1.628000000,XLT=1.085000000,%loadloss=1.900000000,%noloadloss=0.600000000
new transformer.1336505 Phases=1,Windings=3,Buses=[BMT105531267.2 BBT105531288.1.0 BBT105531288.0.2],Conns=[wye wye wye],kvs=[7.967 0.12 0.12],kvas=[15.000000000 15.000000000 15.000000000],Taps=[1,1.000000000,1.000000000],XHL=2.123000000,XHT=2.123000000,XLT=1.415000000,%loadloss=1.600000000,%noloadloss=0.400000000
new transformer.1358849 Phases=3,Windings=2,Buses=[BMT162156236.1.2.3 BBT122642879.1.2.3.0],Conns=[delta wye],kvs=[13.8 0.22],kvas=[45.000000000 45.000000000],Taps=[1,1.000000000],XHL=3.636000000,%loadloss=1.522000000,%noloadloss=0.377777778
new transformer.1370448 Phases=3,Windings=2,Buses=[BMT167106168.1.2.3 BBT131455571.1.2.3.0],Conns=[delta wye],kvs=[13.8 0.22],kvas=[45.000000000 45.000000000],Taps=[1,1.000000000],XHL=3.636000000,%loadloss=1.522000000,%noloadloss=0.377777778
new transformer.1379373 Phases=3,Windings=2,Buses=[BMT170218378.1.2.3 BBT136807911.1.2.3.0],Conns=[delta wye],kvs=[13.8 0.22],kvas=[45.000000000 45.000000000],Taps=[1,1.000000000],XHL=3.636000000,%loadloss=1.522000000,%noloadloss=0.377777778
new transformer.1379380 Phases=3,Windings=2,Buses=[BMT170218381.1.2.3 BBT136809458.1.2.3.0],Conns=[delta wye],kvs=[13.8 0.22],kvas=[45.000000000 45.000000000],Taps=[1,1.000000000],XHL=3.636000000,%loadloss=1.522000000,%noloadloss=0.377777778
new transformer.1390383 Phases=3,Windings=2,Buses=[BMT170566819.1.2.3 BBT148101472.1.2.3.0],Conns=[delta wye],kvs=[13.8 0.22],kvas=[45.000000000 45.000000000],Taps=[1,1.000000000],XHL=3.636000000,%loadloss=1.522000000,%noloadloss=0.377777778
new transformer.1402439 Phases=3,Windings=2,Buses=[BMT161717507.1.2.3 BBT151040179.1.2.3.0],Conns=[delta wye],kvs=[13.8 0.22],kvas=[75.000000000 75.000000000],Taps=[1,1.000000000],XHL=3.721000000,%loadloss=1.340000000,%noloadloss=0.340000000
new transformer.1402440 Phases=3,Windings=2,Buses=[BMT161717508.1.2.3 BBT151040587.1.2.3.0],Conns=[delta wye],kvs=[13.8 0.22],kvas=[75.000000000 75.000000000],Taps=[1,1.000000000],XHL=3.721000000,%loadloss=1.340000000,%noloadloss=0.340000000
new transformer.1402443 Phases=3,Windings=2,Buses=[BMT161717509.1.2.3 BBT151040792.1.2.3.0],Conns=[delta wye],kvs=[13.8 0.22],kvas=[75.000000000 75.000000000],Taps=[1,1.000000000],XHL=3.721000000,%loadloss=1.340000000,%noloadloss=0.340000000
...